Version 4
SHEET 1 1852 680
WIRE 1408 -432 1184 -432
WIRE 1408 -400 1408 -432
WIRE 1648 -368 1488 -368
WIRE 1488 -336 1488 -368
WIRE 1488 -336 1456 -336
WIRE 1648 -336 1648 -368
WIRE 1456 -304 1456 -336
WIRE -16 -288 -16 -320
WIRE 416 -240 368 -240
WIRE 432 -240 432 -272
WIRE 432 -240 416 -240
WIRE 464 -240 432 -240
WIRE 512 -240 464 -240
WIRE 704 -240 512 -240
WIRE 800 -240 704 -240
WIRE 1088 -240 800 -240
WIRE 1456 -224 1456 -256
WIRE 1648 -224 1648 -256
WIRE 1648 -224 1456 -224
WIRE 144 -192 144 -320
WIRE 1088 -192 1088 -240
WIRE 1184 -192 1184 -432
WIRE 1184 -192 1088 -192
WIRE 1264 -192 1184 -192
WIRE 1552 -192 1488 -192
WIRE -16 -176 -16 -208
WIRE 1088 -176 1088 -192
WIRE 1552 -176 1552 -192
WIRE 704 -144 704 -240
WIRE 800 -144 800 -240
WIRE 1488 -144 1488 -192
WIRE 1088 -80 1088 -96
WIRE 1184 -80 1088 -80
WIRE 1264 -80 1184 -80
WIRE 144 -64 144 -112
WIRE 144 -64 64 -64
WIRE 224 -64 144 -64
WIRE 368 -64 368 -240
WIRE 368 -64 288 -64
WIRE 704 -48 704 -80
WIRE 1184 -48 1184 -80
WIRE 1408 -48 1408 -240
WIRE 1408 -48 1184 -48
WIRE 1488 -32 1488 -64
WIRE 1088 -16 1088 -80
WIRE 160 0 144 0
WIRE 368 0 368 -64
WIRE 416 0 416 -240
WIRE 464 0 464 -240
WIRE 512 0 512 -240
WIRE 64 16 64 -64
WIRE 80 16 64 16
WIRE -16 32 -160 32
WIRE 208 32 144 32
WIRE 704 32 704 16
WIRE 800 32 800 -64
WIRE 800 32 704 32
WIRE 896 32 800 32
WIRE 992 32 976 32
WIRE 1024 32 992 32
WIRE -160 48 -160 32
WIRE 704 48 704 32
WIRE 64 64 64 32
WIRE 160 64 160 0
WIRE 160 64 64 64
WIRE 1488 80 1488 48
WIRE 1648 80 1488 80
WIRE 144 96 80 96
WIRE 1488 96 1488 80
WIRE 80 112 80 96
WIRE 144 112 144 96
WIRE 208 112 208 32
WIRE 208 112 144 112
WIRE 368 144 368 64
WIRE 416 144 416 64
WIRE 416 144 368 144
WIRE 464 144 464 64
WIRE 464 144 416 144
WIRE 512 144 512 64
WIRE 512 144 464 144
WIRE 704 144 704 112
WIRE 704 144 512 144
WIRE 1088 144 1088 80
WIRE 1200 144 1088 144
WIRE 1424 144 1200 144
WIRE -160 160 -160 128
WIRE 368 160 368 144
WIRE 1088 160 1088 144
WIRE 1200 160 1200 144
WIRE 992 176 992 32
WIRE 80 208 80 176
WIRE 144 208 144 192
WIRE 144 208 80 208
WIRE 144 224 144 208
WIRE 656 224 608 224
WIRE 784 224 656 224
WIRE 816 224 784 224
WIRE 928 224 896 224
WIRE 1200 240 1200 224
WIRE 656 256 656 224
WIRE 1088 256 1088 240
WIRE 1488 256 1488 192
WIRE 784 304 784 224
WIRE 656 352 656 336
WIRE 1200 352 1200 320
WIRE 784 416 784 384
WIRE 992 416 992 272
FLAG 368 160 0
FLAG 432 -272 36V
FLAG -16 -176 0
FLAG 1088 256 0
FLAG 1264 -192 MBUS+
FLAG 1264 -80 MBUS-
FLAG 656 352 0
FLAG 784 416 0
FLAG 992 416 0
FLAG 1488 256 0
FLAG 1552 -176 0
FLAG 1648 80 RX
IOPIN 1648 80 Out
FLAG 1648 -224 slave_writes
FLAG 608 224 TX
FLAG -16 -320 5V
FLAG 144 -320 5V
FLAG -160 160 0
FLAG 144 224 0
FLAG 1200 352 0
SYMBOL ind 128 -208 R0
SYMATTR InstName L1
SYMATTR Value 1mH
SYMATTR SpiceLine Ipk=485m Rser=2.7 Rpar=1.11693e+06 Cpar=0
SYMBOL res 80 16 R90
WINDOW 0 0 56 VBottom 2
WINDOW 3 32 56 VTop 2
SYMATTR InstName R1
SYMATTR Value 100R
SYMATTR SpiceLine tol=1 pwr=.1
SYMBOL diode 224 -48 R270
WINDOW 0 32 32 VTop 2
WINDOW 3 0 32 VBottom 2
SYMATTR InstName D1
SYMATTR Value 1N4148
SYMBOL polcap 384 0 M0
WINDOW 3 24 56 Left 2
SYMATTR Value 4.7µ
SYMATTR InstName C1
SYMATTR SpiceLine V=100 Irms=175m Rser=0.105 Lser=10n
SYMATTR Description Capacitor
SYMATTR Type cap
SYMBOL zener 720 112 R180
WINDOW 0 24 64 Left 2
WINDOW 3 24 0 Left 2
SYMATTR InstName D2
SYMATTR Value BZX84C12L
SYMBOL zener 720 16 R180
WINDOW 0 24 64 Left 2
WINDOW 3 24 0 Left 2
SYMATTR InstName D3
SYMATTR Value BZX84C12L
SYMBOL zener 720 -80 R180
WINDOW 0 24 64 Left 2
WINDOW 3 24 0 Left 2
SYMATTR InstName D4
SYMATTR Value BZX84C12L
SYMBOL voltage -16 -304 R0
WINDOW 123 0 0 Left 0
WINDOW 39 24 44 Left 2
SYMATTR SpiceLine Rser=0.1
SYMATTR InstName V2
SYMATTR Value 5
SYMBOL res 784 -160 R0
SYMATTR InstName R2
SYMATTR Value 47k
SYMATTR SpiceLine tol=1 pwr=.25
SYMBOL res 992 16 R90
WINDOW 0 0 56 VBottom 2
WINDOW 3 32 56 VTop 2
SYMATTR InstName R3
SYMATTR Value 22k
SYMATTR SpiceLine tol=1 pwr=.25
SYMBOL pnp2 1024 80 M180
SYMATTR InstName Q2
SYMATTR Value 2N3906
SYMBOL res 1072 -192 R0
SYMATTR InstName R4
SYMATTR Value 220k
SYMBOL res 1072 144 R0
SYMATTR InstName R5
SYMATTR Value 120R
SYMBOL npn 928 176 R0
SYMATTR InstName Q3
SYMATTR Value 2N2222
SYMBOL res 768 288 R0
SYMATTR InstName R6
SYMATTR Value 4.7k
SYMBOL res 912 208 R90
WINDOW 0 0 56 VBottom 2
WINDOW 3 32 56 VTop 2
SYMATTR InstName R7
SYMATTR Value 15k
SYMBOL voltage 656 240 R0
WINDOW 123 0 0 Left 0
WINDOW 39 0 0 Left 0
SYMATTR InstName V3
SYMATTR Value PULSE(3.3 0 10m .001m .001m 2m 4m 3)
SYMBOL npn 1424 96 R0
SYMATTR InstName Q4
SYMATTR Value 2N3904
SYMBOL voltage 1488 -48 R180
WINDOW 123 0 0 Left 0
WINDOW 39 0 0 Left 0
SYMATTR InstName V4
SYMATTR Value 3.3
SYMBOL res 1472 -48 R0
SYMATTR InstName R10
SYMATTR Value 1k
SYMBOL sw 1408 -336 M0
SYMATTR InstName S1
SYMATTR Value MYSWITCH
SYMBOL res 1392 -416 R0
SYMATTR InstName R8
SYMATTR Value 1.8k
SYMBOL voltage 1648 -240 R180
WINDOW 0 24 96 Left 2
WINDOW 3 24 16 Left 2
WINDOW 123 0 0 Left 0
WINDOW 39 0 0 Left 0
SYMATTR InstName V5
SYMATTR Value PULSE(0 5 50m 5n 5n 4ms 10ms 3)
SYMBOL voltage -160 32 R0
WINDOW 123 0 0 Left 0
WINDOW 39 0 0 Left 0
WINDOW 3 -255 -33 Left 2
SYMATTR Value PULSE(0 3.3 0 5n 5n 48.89u 55.56u)
SYMATTR InstName V1
SYMBOL res 128 96 R0
SYMATTR InstName R11
SYMATTR Value 1R
SYMATTR SpiceLine tol=1 pwr=.125
SYMBOL cap 96 112 M0
SYMATTR InstName C2
SYMATTR Value 0.1µF
SYMBOL cap 400 0 R0
SYMATTR InstName C3
SYMATTR Value 1µ
SYMATTR SpiceLine V=50 Irms=3.41 Rser=0.0133158 Lser=0 mfg="KEMET" pn="C1206C105K5RAC" type="X7R"
SYMBOL cap 448 0 R0
SYMATTR InstName C4
SYMATTR Value 1µ
SYMATTR SpiceLine V=50 Irms=3.41 Rser=0.0133158 Lser=0 mfg="KEMET" pn="C1206C105K5RAC" type="X7R"
SYMBOL cap 496 0 R0
SYMATTR InstName C5
SYMATTR Value 1µ
SYMATTR SpiceLine V=50 Irms=3.41 Rser=0.0133158 Lser=0 mfg="KEMET" pn="C1206C105K5RAC" type="X7R"
SYMBOL cap 1184 160 R0
SYMATTR InstName C6
SYMATTR Value 0.1µF
SYMBOL res 1184 224 R0
SYMATTR InstName R9
SYMATTR Value 10R
SYMBOL AutoGenerated\\irlz34n 112 16 R0
SYMATTR InstName U1
TEXT -232 416 Left 2 !.model MYSWITCH SW (Ron=1 Roff=1MEG Vt=1 Vh=0.5)
TEXT 72 360 Left 2 !.tran .07 startup
